 &NAM_FILE_NAMES
   HPGDFILE='PGDFILE',
   CINIFILE='INIT_SURF',
 /
 &NAM_PREP_ISBA
   LISBA_CANOPY=.FALSE.,
 /
 &NAM_PREP_SEAFLUX
   LSEA_SBL=.FALSE.,
 /
 &NAM_PREP_WATFLUX
   LWAT_SBL=.FALSE.,
 /
 &NAM_WRITE_SURF_ATM
   LNOWRITE_TEXFILE=.TRUE.,
 /
