&NAML
   TABCH(1)='CLSVISIHYDN60',
 &END
