&NAML
   TABCH(1)='H00005N_CLOUD',
 &END
