&NAML
   TABCH(1)='P95000CLOUD_WATE',
 &END
