 &NAML
   TABCH(1)='CLSVENT.MERIDIEN',
 &END

