 &NAML
   TABCH(1)='CLSVENT.ZONAL',
 &END

