&NAML
   TABCH(1)='P00000CLOUD_WATE',
 &END
